LTspice 24.1.6 for Windows
Circuit: C:\Users\drala\Documents\Projects\Airband Scanner\LtSpice Analysis\Infinite Impedance Detector.net
Start Time: Fri Jun 13 00:46:31 2025
solver = Normal
Maximum thread count: 4
tnom = 27
temp = 27
method = modified trap
trtol = 7
Direct Newton iteration for .op point succeeded.
Total elapsed time: 24.288 seconds.

Files loaded:
C:\Users\drala\Documents\Projects\Airband Scanner\LtSpice Analysis\Infinite Impedance Detector.net
C:\Users\drala\AppData\Local\LTspice\lib\cmp\standard.jft

